12

O      22.175002999999997     23.148126999999999     21.029673000000003
C      22.146885999999999     21.820895000000000     21.567317000000003
H      23.007276999999998     23.560082999999999     21.318496000000003
H      22.155182999999997     21.866581000000000     22.667695000000002
C      20.834536999999997     21.220921999999998     21.108210000000003
C      23.348533000000000     21.019956000000001     21.092269000000002
H      20.813806999999997     21.177182999999999     20.016180000000002
H      23.350655000000000     20.976618999999999     20.000000000000000
H      20.000000000000000     21.839428999999999     21.444865000000000
H      24.284273999999996     21.485112000000001     21.420353000000002
H      20.709102999999999     20.210160999999999     21.505529000000003
H      23.325547999999998     20.000000000000000     21.487156000000002
