5

C      20.629117999999998     20.629117999999998     20.629117999999998
H      21.258235999999997     21.258235999999997     21.258235999999997
H      20.000000000000000     20.000000000000000     21.258235999999997
H      21.258235999999997     20.000000000000000     20.000000000000000
H      20.000000000000000     21.258235999999997     20.000000000000000
