474

C       0.450179781493593      0.892098533711444     16.079480213044995
C       0.450179781493593      2.316589904711444     16.079480213044995
C      -0.783465931903332      3.028835556915599     16.079480213044995
C      -0.783465931903332      4.453326927915599     16.079480213044995
C      -2.017111645300257      5.165572580119753     16.079480213044995
C      -2.017111645300257      6.590063951119754     16.079480213044995
C      -3.250757358697182      7.302309603323908     16.079480213044995
C      -3.250757358697182      8.726800974323908     16.079480213044995
C      -4.484403072094107      9.439046626528063     16.079480213044995
C      -4.484403072094107     10.863537997528061     16.079480213044995
C      -5.718048785491032     11.575783649732218     16.079480213044995
C      -5.718048785491032     13.000275020732216     16.079480213044995
C      -6.951694498887957     13.712520672936371     16.079480213044995
C      -6.951694498887957     15.137012043936370     16.079480213044995
C      -8.185340212284883     15.849257696140526     16.079480213044995
C      -8.185340212284883     17.273749067140525     16.079480213044995
C      -9.418985925681808     17.985994719344678     16.079480213044995
C       1.718209195263910      0.120298566370665     16.079480213044995
C       2.917471181493593      0.892098533711444     16.079480213044995
C       2.917471181493592      2.316589904711444     16.079480213044995
C       1.683825468096668      3.028835556915599     16.079480213044995
C       1.683825468096669      4.453326927915599     16.079480213044995
C       0.450179754699743      5.165572580119753     16.079480213044995
C       0.450179754699743      6.590063951119754     16.079480213044995
C      -0.783465958697181      7.302309603323908     16.079480213044995
C      -0.783465958697181      8.726800974323908     16.079480213044995
C      -2.017111672094106      9.439046626528063     16.079480213044995
C      -2.017111672094107     10.863537997528061     16.079480213044995
C      -3.250757385491032     11.575783649732218     16.079480213044995
C      -3.250757385491032     13.000275020732216     16.079480213044995
C      -4.484403098887956     13.712520672936371     16.079480213044995
C      -4.484403098887957     15.137012043936370     16.079480213044995
C      -5.718048812284881     15.849257696140526     16.079480213044995
C      -5.718048812284882     17.273749067140525     16.079480213044995
C      -6.951694525681806     17.985994719344678     16.079480213044995
C       4.185500595263910      0.120298566370665     16.079480213044995
C       5.384762581493592      0.892098533711444     16.079480213044995
C       5.384762581493593      2.316589904711444     16.079480213044995
C       4.151116868096667      3.028835556915599     16.079480213044995
C       0.450179727905893      9.439046626528063     16.079480213044995
C       0.450179727905895     10.863537997528061     16.079480213044995
C      -0.783465985491032     11.575783649732218     16.079480213044995
C      -0.783465985491031     13.000275020732216     16.079480213044995
C      -2.017111698887957     13.712520672936371     16.079480213044995
C      -2.017111698887955     15.137012043936370     16.079480213044995
C      -3.250757412284883     15.849257696140526     16.079480213044995
C      -3.250757412284881     17.273749067140525     16.079480213044995
C      -4.484403125681807     17.985994719344678     16.079480213044995
C       6.652791995263910      0.120298566370665     16.079480213044995
C       7.852053981493591      0.892098533711444     16.079480213044995
C       7.852053981493591      2.316589904711444     16.079480213044995
C       6.618408268096668      3.028835556915599     16.079480213044995
C       1.683825414508968     11.575783649732218     16.079480213044995
C       1.683825414508968     13.000275020732216     16.079480213044995
C       0.450179701112042     13.712520672936371     16.079480213044995
C       0.450179701112043     15.137012043936370     16.079480213044995
C      -0.783466012284882     15.849257696140526     16.079480213044995
C      -0.783466012284882     17.273749067140525     16.079480213044995
C      -2.017111725681807     17.985994719344678     16.079480213044995
C       9.120083395263910      0.120298566370665     16.079480213044995
C      10.319345381493592      0.892098533711444     16.079480213044995
C      10.319345381493592      2.316589904711444     16.079480213044995
C       9.085699668096668      3.028835556915599     16.079480213044995
C       9.085699668096668      4.453326927915599     16.079480213044995
C       4.151116814508969     13.000275020732216     16.079480213044995
C       2.917471101112043     13.712520672936371     16.079480213044995
C       2.917471101112044     15.137012043936370     16.079480213044995
C       1.683825387715119     15.849257696140526     16.079480213044995
C       1.683825387715119     17.273749067140525     16.079480213044995
C       0.450179674318194     17.985994719344678     16.079480213044995
C      11.587374795263912      0.120298566370665     16.079480213044995
C      12.786636781493595      0.892098533711444     16.079480213044995
C      12.786636781493595      2.316589904711444     16.079480213044995
C      11.552991068096670      3.028835556915599     16.079480213044995
C      11.552991068096670      4.453326927915599     16.079480213044995
C      10.319345354699744      5.165572580119753     16.079480213044995
C      10.319345354699745      6.590063951119754     16.079480213044995
C       6.618408214508971     13.000275020732216     16.079480213044995
C       5.384762501112045     13.712520672936371     16.079480213044995
C       5.384762501112046     15.137012043936370     16.079480213044995
C       4.151116787715121     15.849257696140526     16.079480213044995
C       4.151116787715121     17.273749067140525     16.079480213044995
C       2.917471074318196     17.985994719344678     16.079480213044995
C      14.054666195263913      0.120298566370665     16.079480213044995
C      15.253928181493594      0.892098533711444     16.079480213044995
C      15.253928181493590      2.316589904711444     16.079480213044995
C      14.020282468096669      3.028835556915599     16.079480213044995
C      14.020282468096669      4.453326927915599     16.079480213044995
C      12.786636754699742      5.165572580119753     16.079480213044995
C      12.786636754699742      6.590063951119754     16.079480213044995
C      11.552991041302818      7.302309603323908     16.079480213044995
C      11.552991041302819      8.726800974323908     16.079480213044995
C      10.319345327905895      9.439046626528063     16.079480213044995
C      10.319345327905891     10.863537997528061     16.079480213044995
C       9.085699614508968     11.575783649732218     16.079480213044995
C       9.085699614508966     13.000275020732216     16.079480213044995
C       7.852053901112041     13.712520672936371     16.079480213044995
C       7.852053901112042     15.137012043936370     16.079480213044995
C       6.618408187715120     15.849257696140526     16.079480213044995
C       6.618408187715116     17.273749067140525     16.079480213044995
C       5.384762474318196     17.985994719344678     16.079480213044995
C      16.521957595263910      0.120298566370665     16.079480213044995
C      17.721219581493592      0.892098533711444     16.079480213044995
C      17.721219581493592      2.316589904711444     16.079480213044995
C      16.487573868096668      3.028835556915599     16.079480213044995
C      16.487573868096668      4.453326927915599     16.079480213044995
C      15.253928154699743      5.165572580119753     16.079480213044995
C      15.253928154699743      6.590063951119754     16.079480213044995
C      14.020282441302818      7.302309603323908     16.079480213044995
C      14.020282441302820      8.726800974323908     16.079480213044995
C      12.786636727905895      9.439046626528063     16.079480213044995
C      12.786636727905892     10.863537997528061     16.079480213044995
C      11.552991014508969     11.575783649732218     16.079480213044995
C      11.552991014508967     13.000275020732216     16.079480213044995
C      10.319345301112040     13.712520672936371     16.079480213044995
C      10.319345301112042     15.137012043936370     16.079480213044995
C       9.085699587715117     15.849257696140526     16.079480213044995
C       9.085699587715117     17.273749067140525     16.079480213044995
C       7.852053874318193     17.985994719344678     16.079480213044995
C      18.989248995263910      0.120298566370665     16.079480213044995
C      20.188510981493593      0.892098533711444     16.079480213044995
C      20.188510981493593      2.316589904711444     16.079480213044995
C      18.954865268096668      3.028835556915599     16.079480213044995
C      18.954865268096668      4.453326927915599     16.079480213044995
C      17.721219554699744      5.165572580119753     16.079480213044995
C      17.721219554699744      6.590063951119754     16.079480213044995
C      16.487573841302819      7.302309603323908     16.079480213044995
C      16.487573841302819      8.726800974323908     16.079480213044995
C      15.253928127905896      9.439046626528063     16.079480213044995
C      15.253928127905892     10.863537997528061     16.079480213044995
C      14.020282414508969     11.575783649732218     16.079480213044995
C      14.020282414508968     13.000275020732216     16.079480213044995
C      12.786636701112041     13.712520672936371     16.079480213044995
C      12.786636701112043     15.137012043936370     16.079480213044995
C      11.552990987715118     15.849257696140526     16.079480213044995
C      11.552990987715118     17.273749067140525     16.079480213044995
C      10.319345274318193     17.985994719344678     16.079480213044995
C      21.456540395263911      0.120298566370665     16.079480213044995
Mo     -9.258626960607003     18.969829551016627      3.156211122475033
Mo      0.287542846356866      0.598222223318164      9.856774969190372
Mo      0.287548489592330      2.435387821777749      3.156211598791214
Mo     -1.303476824389520      3.353968018053303      9.856775445506553
Mo     -1.303471181154057      5.191133616512882      3.156212075107395
Mo     -2.894496495135909      6.109713812788429      9.856775921822734
Mo     -2.894490851900446      7.946879411248000      3.156212551423577
Mo     -4.485516165882297      8.865459607523546      9.856776398138916
Mo     -4.485510522646832     10.702625205983118      3.156213027739758
Mo     -6.076535836628677     11.621205402258660      9.856776874455097
Mo     -6.076530193393213     13.458371000718236      3.156213504055939
Mo     -7.667555507375058     14.376951196993785      9.856777350771278
Mo     -7.667549864139593     16.214116795453361      3.156213980372120
Mo     -9.258575178121438     17.132696991728924      9.856777827087456
Mo     -6.076570760621792     18.969839240346285      3.156210683361722
Mo      3.469599046342088      0.598231912647820      9.856774530077058
Mo      3.469604689577551      2.435397511107405      3.156211159677903
Mo      1.878579375595709      3.353977707382960      9.856775006393246
Mo      1.878585018831171      5.191143305842539      3.156211635994084
Mo      0.287559704849322      6.109723502118085      9.856775482709420
Mo      0.287565348084785      7.946889100577657      3.156212112310266
Mo     -1.303459965897064      8.865469296853203      9.856775959025608
Mo     -1.303454322661601     10.702634895312775      3.156212588626447
Mo     -2.894479636643452     11.621215091588319      9.856776435341782
Mo     -2.894473993407989     13.458380690047894      3.156213064942628
Mo     -4.485499307389839     14.376960886323443      9.856776911657970
Mo     -4.485493664154376     16.214126484783019      3.156213541258809
Mo     -6.076518978136218     17.132706681058583      9.856777387974144
Mo     -2.894514560636585     18.969848929675940      3.156210244248407
Mo      6.651655246327296      0.598241601977477      9.856774090963754
Mo      6.651660889562758      2.435407200437063      3.156210720564589
Mo      5.060635575580920      3.353987396712617      9.856774567279921
Mo      5.060641218816384      5.191152995172195      3.156211196880770
Mo      3.469615904834545      6.109733191447740      9.856775043596112
Mo      3.469621548070008      7.946898789907314      3.156211673196951
Mo      1.878596234088164      8.865478986182859      9.856775519912290
Mo      1.878601877323628     10.702644584642432      3.156212149513136
Mo      0.287576563341780     11.621224780917974      9.856775996228475
Mo      0.287582206577243     13.458390379377549      3.156212625829313
Mo     -1.303443107404608     14.376970575653099      9.856776472544652
Mo     -1.303437464169144     16.214136174112674      3.156213102145494
Mo     -2.894462778150996     17.132716370388238      9.856776948860837
Mo      0.287541639348623     18.969858619005599      3.156209805135096
Mo      9.833711446312499      0.598251291307134      9.856773651850435
Mo      9.833717089547962      2.435416889766719      3.156210281451278
Mo      8.242691775566126      3.353997086042273      9.856774128166617
Mo      8.242697418801590      5.191162684501853      3.156210757767459
Mo      6.651672104819753      6.109742880777397      9.856774604482798
Mo      6.651677748055214      7.946908479236971      3.156211234083640
Mo      5.060652434073377      8.865488675512516      9.856775080798979
Mo      5.060658077308841     10.702654273972088      3.156211710399821
Mo      3.469632763327001     11.621234470247632      9.856775557115157
Mo      3.469638406562464     13.458400068707206      3.156212186716002
Mo      1.878613092580621     14.376980264982755      9.856776033431345
Mo      1.878618735816087     16.214145863442333      3.156212663032183
Mo      0.287593421834236     17.132726059717896      9.856776509747526
Mo      3.469597839333841     18.969868308335254      3.156209366021785
Mo     13.015767646297716      0.598260980636790      9.856773212737121
Mo     13.015773289533179      2.435426579096375      3.156209842337967
Mo     11.424747975551337      3.354006775371929      9.856773689053309
Mo     11.424753618786799      5.191172373831509      3.156210318654148
Mo      9.833728304804955      6.109752570107054      9.856774165369483
Mo      9.833733948040420      7.946918168566627      3.156210794970329
Mo      8.242708634058582      8.865498364842173      9.856774641685671
Mo      8.242714277294047     10.702663963301744      3.156211271286510
Mo      6.651688963312209     11.621244159577287      9.856775118001845
Mo      6.651694606547673     13.458409758036863      3.156211747602691
Mo      5.060669292565834     14.376989954312412      9.856775594318034
Mo      5.060674935801296     16.214155552771988      3.156212223918872
Mo      3.469649621819456     17.132735749047551      9.856776070634208
Mo      6.651654039319101     18.969877997664909      3.156208926908471
Mo     16.197823846282944      0.598270669966447      9.856772773623813
Mo     16.197829489518409      2.435436268426032      3.156209403224652
Mo     14.606804175536553      3.354016464701585      9.856773249939991
Mo     14.606809818772016      5.191182063161166      3.156209879540837
Mo     13.015784504790172      6.109762259436711      9.856773726256172
Mo     13.015790148025635      7.946927857896284      3.156210355857014
Mo     11.424764834043792      8.865508054171830      9.856774202572353
Mo     11.424770477279253     10.702673652631399      3.156210832173195
Mo      9.833745163297412     11.621253848906944      9.856774678888538
Mo      9.833750806532876     13.458419447366520      3.156211308489377
Mo      8.242725492551038     14.376999643642069      9.856775155204716
Mo      8.242731135786503     16.214165242101643      3.156211784805558
Mo      6.651705821804663     17.132745438377206      9.856775631520900
Mo      9.833710239304377     18.969887686994568      3.156208487795160
Mo     19.379880046268219      0.598280359296104      9.856772334510499
Mo     19.379885689503684      2.435445957755689      3.156208964111341
Mo     17.788860375521811      3.354026154031242      9.856772810826680
Mo     17.788866018757275      5.191191752490821      3.156209440427522
Mo     16.197840704775402      6.109771948766367      9.856773287142857
Mo     16.197846348010867      7.946937547225939      3.156209916743703
Mo     14.606821034029009      8.865517743501485      9.856773763459046
Mo     14.606826677264472     10.702683341961059      3.156210393059884
Mo     13.015801363282630     11.621263538236601      9.856774239775227
Mo     13.015807006518093     13.458429136696177      3.156210869376066
Mo     11.424781692536246     14.377009332971724      9.856774716091408
Mo     11.424787335771711     16.214174931431302      3.156211345692247
Mo      9.833762021789868     17.132755127706865      9.856775192407589
Mo     15.008104664266126      1.448372728974071     13.719480213045033
Mo     13.845399883299436      6.071568517998409     13.719480213045033
Mo     10.592856201511417     14.196912917429740     13.719480213045033
Mo      4.973825950592968      3.798779599440816     13.719480213045033
Mo      4.607418909203955      8.946473617082134     13.719480213045033
Mo      7.544403611318570      1.013687867836237     13.719480213045033
Mo      1.723916292923355      0.528567275969640     13.719480213045033
Mo      7.770050513885888      5.701705367863181     13.719480213045033
Mo     -5.325647881043175     13.259371554139014     13.719480213045033
Mo     18.898397260204252      5.494085084937608     13.719480213045033
Mo      6.738242385374241     17.674605523611497     13.719480213045033
Mo      1.814952210614471      9.964868336202899     13.719480213045033
Mo      1.666758176987642     15.624986815843307     13.719480213045033
Mo     15.418495928426928      8.892002883197849     13.719480213045033
Mo     21.451511235217108      0.333189762528831     13.719480213045033
Mo     13.922202044679386     14.191632562868254     13.719480213045033
Mo      2.313446291963956      4.978375605647366     13.719480213045033
Mo      8.743233341463418      9.001873505000255     13.719480213045033
Mo     -2.067453773625589     16.371031122598829     13.719480213045033
Mo     11.672598816299855     16.978844955718721     13.719480213045033
Mo     -1.416976369834533     12.378765377314057     13.719480213045033
Mo     11.417181992225776      2.677739854910236     13.719480213045033
Mo     -4.478102539889856     10.409960856513381     13.719480213045033
Mo      3.563925373145515     12.773179963171408     13.719480213045033
Mo     -8.077118000722425     17.127199496203708     13.719480213045033
Mo     -3.102354205107217      6.721553642155587     13.719480213045033
Mo      7.303023334412956     13.180771152540204     13.719480213045033
Mo     -4.935407875059870     19.148071382466561     13.719480213045033
Mo      1.851569320009785     18.652143986409648     13.719480213045033
Mo     -1.046130272076611      3.684363159816712     13.719480213045033
Mo     12.284346074769275     11.457086715041882     13.719480213045033
Mo      4.618839223624435      0.855292346181582     13.719480213045033
Mo     18.181604066192488      0.161569886476456     13.719480213045033
Mo     11.675437031093576      8.465937870677379     13.719480213045033
Mo    -10.491898151860847     18.847781301733832     13.719480213045033
Mo     -1.249368847841280      9.334426429546598     13.719480213045033
Mo     10.256737095401046     -0.038478311039071     13.719480213045033
Mo      9.595315636259205     19.156115168534146     13.719480213045033
Mo      4.707631624421644     15.573348768576231     13.719480213045033
Mo     16.211491267852409      4.313612070034438     13.719480213045033
Mo     -0.144562877121104      6.628068667705706     13.719480213045033
Mo     10.672946101168828      5.726727937026956     13.719480213045033
S      -9.258626277325531     18.969830821625411      8.294072284050760
S       0.287542146417581      0.598220881770007      4.718913665860581
S      -9.258626141607220     18.969830511479181     11.419477355147986
S       0.287542027901585      0.598221169792780      1.593509391671757
S       0.287549172873801      2.435389092386535      8.294072760366941
S      -1.303477524328805      3.353966676505145      4.718914142176763
S       0.287549308592112      2.435388782240300     11.419477831464178
S      -1.303477642844800      3.353966964527920      1.593509867987938
S      -1.303470497872586      5.191134887121668      8.294073236683122
S      -2.894497195075194      6.109712471240270      4.718914618492944
S      -1.303470362154274      5.191134576975434     11.419478307780349
S      -2.894497313591189      6.109712759263044      1.593510344304119
S      -2.894490168618975      7.946880681856785      8.294073712999303
S      -4.485516865821582      8.865458265975388      4.718915094809125
S      -2.894490032900662      7.946880371710551     11.419478784096540
S      -4.485516984337577      8.865458553998163      1.593510820620300
S      -4.485509839365362     10.702626476591902      8.294074189315484
S      -6.076536536567962     11.621204060710504      4.718915571125306
S      -4.485509703647049     10.702626166445670     11.419479260412711
S      -6.076536655083958     11.621204348733279      1.593511296936482
S      -6.076529510111742     13.458372271327024      8.294074665631666
S      -7.667556207314343     14.376949855445629      4.718916047441487
S      -6.076529374393429     13.458371961180788     11.419479736728892
S      -7.667556325830338     14.376950143468404      1.593511773252663
S      -7.667549180858122     16.214118066062145      8.294075141947847
S      -9.258575878060723     17.132695650180768      4.718916523757668
S      -7.667549045139811     16.214117755915911     11.419480213045073
S      -9.258575996576718     17.132695938203540      1.593512249568844
S      -6.076570077340319     18.969840510955070      8.294071844937449
S       3.469598346402803      0.598230571099662      4.718913226747270
S      -6.076569941622008     18.969840200808836     11.419476916034679
S       3.469598227886808      0.598230859122437      1.593508952558446
S       3.469605372859023      2.435398781716191      8.294072321253623
S       1.878578675656423      3.353976365834802      4.718913703063452
S       3.469605508577335      2.435398471569957     11.419477392350860
S       1.878578557140427      3.353976653857575      1.593509428874627
S       1.878585702112642      5.191144576451324      8.294072797569811
S       0.287559004910037      6.109722160569928      4.718914179379633
S       1.878585837830954      5.191144266305090     11.419477868667041
S       0.287558886394042      6.109722448592700      1.593509905190808
S       0.287566031366256      7.946890371186441      8.294073273885992
S      -1.303460665836349      8.865467955305045      4.718914655695814
S       0.287566167084568      7.946890061040207     11.419478344983222
S      -1.303460784352344      8.865468243327820      1.593510381506989
S      -1.303453639380129     10.702636165921559      8.294073750202173
S      -2.894480336582738     11.621213750040161      4.718915132011995
S      -1.303453503661817     10.702635855775323     11.419478821299403
S      -2.894480455098732     11.621214038062934      1.593510857823174
S      -2.894473310126517     13.458381960656677      8.294074226518354
S      -4.485500007329124     14.376959544775286      4.718915608328176
S      -2.894473174408205     13.458381650510445     11.419479297615585
S      -4.485500125845119     14.376959832798059      1.593511334139352
S      -4.485492980872904     16.214127755391804      8.294074702834536
S      -6.076519678075504     17.132705339510427      4.718916084644357
S      -4.485492845154592     16.214127445245570     11.419479773931766
S      -6.076519796591500     17.132705627533198      1.593511810455533
S      -2.894513877355115     18.969850200284728      8.294071405824138
S       6.651654546388010      0.598240260429319      4.718912787633956
S      -2.894513741636803     18.969849890138491     11.419476476921368
S       6.651654427872015      0.598240548452094      1.593508513445131
S       6.651661572844231      2.435408471045847      8.294071882140319
S       5.060634875641635      3.353986055164459      4.718913263950137
S       6.651661708562543      2.435408160899613     11.419476953237549
S       5.060634757125640      3.353986343187232      1.593508989761312
S       5.060641902097856      5.191154265780980      8.294072358456500
S       3.469615204895259      6.109731849899583      4.718913740266318
S       5.060642037816168      5.191153955634745     11.419477429553730
S       3.469615086379264      6.109732137922357      1.593509466077494
S       3.469622231351480      7.946900060516098      8.294072834772674
S       1.878595534148880      8.865477644634701      4.718914216582499
S       3.469622367069791      7.946899750369864     11.419477905869908
S       1.878595415632883      8.865477932657477      1.593509942393675
S       1.878602560605099     10.702645855251216      8.294073311088859
S       0.287575863402494     11.621223439369817      4.718914692898680
S       1.878602696323409     10.702645545104984     11.419478382186089
S       0.287575744886498     11.621223727392591      1.593510418709856
S       0.287582889858714     13.458391649986334      8.294073787405040
S      -1.303443807343892     14.376969234104939      4.718915169214862
S       0.287583025577025     13.458391339840098     11.419478858502270
S      -1.303443925859887     14.376969522127714      1.593510895026037
S      -1.303436780887673     16.214137444721459      8.294074263721228
S      -2.894463478090282     17.132715028840082      4.718915645531043
S      -1.303436645169360     16.214137134575225     11.419479334818451
S      -2.894463596606278     17.132715316862853      1.593511371342218
S       0.287542322630098     18.969859889614384      8.294070966710823
S       9.833710746373214      0.598249949758976      4.718912348520645
S       0.287542458348409     18.969859579468146     11.419476037808050
S       9.833710627857219      0.598250237781750      1.593508074331820
S       9.833717772829434      2.435418160375503      8.294071443027004
S       8.242691075626841      3.353995744494114      4.718912824836826
S       9.833717908547746      2.435417850229269     11.419476514124241
S       8.242690957110845      3.353996032516889      1.593508550648001
S       8.242698102083061      5.191163955110637      8.294071919343185
S       6.651671404880466      6.109741539229240      4.718913301153007
S       8.242698237801372      5.191163644964403     11.419476990440412
S       6.651671286364472      6.109741827252013      1.593509026964183
S       6.651678431336688      7.946909749845755      8.294072395659366
S       5.060651734134092      8.865487333964358      4.718913777469188
S       6.651678567055001      7.946909439699521     11.419477466756604
S       5.060651615618096      8.865487621987134      1.593509503280364
S       5.060658760590310     10.702655544580873      8.294072871975548
S       3.469632063387717     11.621233128699473      4.718914253785369
S       5.060658896308626     10.702655234434639     11.419477943072774
S       3.469631944871722     11.621233416722248      1.593509979596545
S       3.469639089843935     13.458401339315991      8.294073348291729
S       1.878612392641337     14.376978923434597      4.718914730101551
S       3.469639225562247     13.458401029169757     11.419478419388966
S       1.878612274125340     14.376979211457373      1.593510455912726
S       1.878619419097553     16.214147134051117      8.294073824607910
S       0.287592721894949     17.132724718169740      4.718915206417735
S       1.878619554815869     16.214146823904883     11.419478895705140
S       0.287592603378954     17.132725006192512      1.593510932228907
S       3.469598522615314     18.969869578944039      8.294070527597512
S      13.015766946358433      0.598259639088633      4.718911909407334
S       3.469598658333627     18.969869268797805     11.419475598694742
S      13.015766827842436      0.598259927111407      1.593507635218509
S      13.015773972814653      2.435427849705160      8.294071003913693
S      11.424747275612051      3.354005433823771      4.718912385723515
S      13.015774108532963      2.435427539558926     11.419476075010923
S      11.424747157096055      3.354005721846546      1.593508111534690
S      11.424754302068271      5.191173644440294      8.294071480229874
S       9.833727604865672      6.109751228558897      4.718912862039696
S      11.424754437786582      5.191173334294060     11.419476551327104
S       9.833727486349675      6.109751516581671      1.593508587850875
S       9.833734631321889      7.946919439175412      8.294071956546055
S       8.242707934119299      8.865497023294015      4.718913338355877
S       9.833734767040202      7.946919129029178     11.419477027643286
S       8.242707815603302      8.865497311316791      1.593509064167053
S       8.242714960575517     10.702665233910526      8.294072432862240
S       6.651688263372924     11.621242818029128      4.718913814672058
S       8.242715096293828     10.702664923764294     11.419477503959467
S       6.651688144856929     11.621243106051905      1.593509540483234
S       6.651695289829143     13.458411028645648      8.294072909178418
S       5.060668592626548     14.376988612764253      4.718914290988240
S       6.651695425547454     13.458410718499412     11.419477980275648
S       5.060668474110551     14.376988900787030      1.593510016799415
S       5.060675619082767     16.214156823380772      8.294073385494599
S       3.469648921880172     17.132734407499395      4.718914767304421
S       5.060675754801078     16.214156513234538     11.419478456591829
S       3.469648803364176     17.132734695522167      1.593510493115596
S       6.651654722600570     18.969879268273694      8.294070088484194
S      16.197823146343659      0.598269328418289      4.718911470294019
S       6.651654858318883     18.969878958127463     11.419475159581431
S      16.197823027827663      0.598269616441063      1.593507196105195
S      16.197830172799879      2.435437539034817      8.294070564800382
S      14.606803475597269      3.354015123153428      4.718911946610200
S      16.197830308518192      2.435437228888583     11.419475635897609
S      14.606803357081271      3.354015411176201      1.593507672421376
S      14.606810502053488      5.191183333769950      8.294071041116560
S      13.015783804850889      6.109760917888554      4.718912422926381
S      14.606810637771801      5.191183023623716     11.419476112213790
S      13.015783686334894      6.109761205911328      1.593508148737557
S      13.015790831307108      7.946929128505069      8.294071517432741
S      11.424764134104509      8.865506712623672      4.718912899242563
S      13.015790967025421      7.946928818358835     11.419476588529971
S      11.424764015588513      8.865507000646447      1.593508625053738
S      11.424771160560727     10.702674923240183      8.294071993748922
S       9.833744463358126     11.621252507358786      4.718913375558744
S      11.424771296279038     10.702674613093951     11.419477064846152
S       9.833744344842131     11.621252795381562      1.593509101369919
S       9.833751489814345     13.458420717975304      8.294072470065100
S       8.242724792611753     14.376998302093911      4.718913851874925
S       9.833751625532656     13.458420407829070     11.419477541162333
S       8.242724674095758     14.376998590116687      1.593509577686100
S       8.242731819067972     16.214166512710428      8.294072946381284
S       6.651705121865379     17.132744096829050      4.718914328191106
S       8.242731954786285     16.214166202564193     11.419478017478514
S       6.651705003349385     17.132744384851822      1.593510054002282
S       9.833710922585846     18.969888957603352      8.294069649370886
S      19.379879346328934      0.598279017747946      4.718911031180708
S       9.833711058304161     18.969888647457118     11.419474720468113
S      19.379879227812939      0.598279305770720      1.593506756991883
S      19.379886372785155      2.435447228364473      8.294070125687067
S      17.788859675582525      3.354024812483085      4.718911507496889
S      19.379886508503468      2.435446918218240     11.419475196784305
S      17.788859557066530      3.354025100505858      1.593507233308065
S      17.788866702038746      5.191193023099606      8.294070602003249
S      16.197840004836117      6.109770607218210      4.718911983813070
S      17.788866837757059      5.191192712953373     11.419475673100475
S      16.197839886320121      6.109770895240984      1.593507709624246
S      16.197847031292337      7.946938817834724      8.294071078319430
S      14.606820334089726      8.865516401953327      4.718912460129252
S      16.197847167010650      7.946938507688490     11.419476149416667
S      14.606820215573730      8.865516689976102      1.593508185940427
S      14.606827360545946     10.702684612569842      8.294071554635611
S      13.015800663343347     11.621262196688443      4.718912936445436
S      14.606827496264259     10.702684302423606     11.419476625732841
S      13.015800544827352     11.621262484711218      1.593508662256608
S      13.015807689799566     13.458430407304959      8.294072030951792
S      11.424780992596963     14.377007991423568      4.718913412761614
S      13.015807825517877     13.458430097158727     11.419477102049026
S      11.424780874080968     14.377008279446343      1.593509138572789
S      11.424788019053183     16.214176202040086      8.294072507267973
S       9.833761321850584     17.132753786158709      4.718913889077795
S      11.424788154771496     16.214175891893852     11.419477578365203
S       9.833761203334589     17.132754074181481      1.593509614888970
